<configuration>
    <input>
        <net-file value="cross.net.xml"/>
        <route-files value="cross.rou.xml"/>
    </input>
    <time>
        <begin value="0"/>
        <end value="30"/>
        <step-length value="0.1"/>
    </time>
</configuration>
