<?xml version="1.0" encoding="UTF-8"?>

<!-- generated on 2025-02-25 14:48:01 by Eclipse SUMO netedit Version 1.22.0
<neteditConfiguration xmlns:xsi="http://www.w3.org/2001/XMLSchema-instance" xsi:noNamespaceSchemaLocation="http://sumo.dlr.de/xsd/neteditConfiguration.xsd">

    <input>
        <sumo-net-file value="D:\Andrea\Universita\Magistrale\Symbolic\Porgetto\SDAI_Project\SDAI_Project\src\SUMO_config\cross.net.xml"/>
    </input>

    <output>
        <output-file value="D:\Andrea\Universita\Magistrale\Symbolic\Porgetto\SDAI_Project\SDAI_Project\src\SUMO_config\cross.net.xml"/>
    </output>

    <processing>
        <geometry.min-radius.fix.railways value="false"/>
        <geometry.max-grade.fix value="false"/>
        <offset.disable-normalization value="true"/>
        <lefthand value="0"/>
    </processing>

    <junctions>
        <no-turnarounds value="true"/>
        <junctions.corner-detail value="5"/>
        <junctions.limit-turn-speed value="5.50"/>
        <rectangular-lane-cut value="0"/>
    </junctions>

    <pedestrian>
        <walkingareas value="0"/>
    </pedestrian>

</neteditConfiguration>
-->

<net version="1.20" junctionCornerDetail="5" limitTurnSpeed="5.50" xmlns:xsi="http://www.w3.org/2001/XMLSchema-instance" xsi:noNamespaceSchemaLocation="http://sumo.dlr.de/xsd/net_file.xsd">

    <location netOffset="0.00,0.00" convBoundary="100.00,100.00,300.00,300.00" origBoundary="0.00,0.00,400.00,400.00" projParameter="!"/>

    <edge id=":B2_0" function="internal">
        <lane id=":B2_0_0" index="0" speed="3.65" length="4.67" shape="100.00,201.60 98.80,200.80 98.40,200.00 98.80,199.20 100.00,198.40"/>
    </edge>
    <edge id=":C1_0" function="internal">
        <lane id=":C1_0_0" index="0" speed="3.65" length="4.67" shape="198.40,100.00 199.20,98.80 200.00,98.40 200.80,98.80 201.60,100.00"/>
    </edge>
    <edge id=":C2_0" function="internal">
        <lane id=":C2_0_0" index="0" speed="6.51" length="9.03" shape="198.40,207.20 198.05,204.75 197.00,203.00 195.25,201.95 192.80,201.60"/>
    </edge>
    <edge id=":C2_1" function="internal">
        <lane id=":C2_1_0" index="0" speed="13.89" length="14.40" shape="198.40,207.20 198.40,192.80"/>
    </edge>
    <edge id=":C2_2" function="internal">
        <lane id=":C2_2_0" index="0" speed="8.00" length="4.07" shape="198.40,207.20 198.95,203.35 199.04,203.20"/>
    </edge>
    <edge id=":C2_3" function="internal">
        <lane id=":C2_3_0" index="0" speed="3.65" length="1.44" shape="198.40,207.20 199.20,206.00"/>
    </edge>
    <edge id=":C2_16" function="internal">
        <lane id=":C2_16_0" index="0" speed="8.00" length="10.13" shape="199.04,203.20 200.60,200.60 203.35,198.95 207.20,198.40"/>
    </edge>
    <edge id=":C2_17" function="internal">
        <lane id=":C2_17_0" index="0" speed="3.65" length="3.23" shape="199.20,206.00 200.00,205.60 200.80,206.00 201.60,207.20"/>
    </edge>
    <edge id=":C2_4" function="internal">
        <lane id=":C2_4_0" index="0" speed="6.51" length="9.03" shape="207.20,201.60 204.75,201.95 203.00,203.00 201.95,204.75 201.60,207.20"/>
    </edge>
    <edge id=":C2_5" function="internal">
        <lane id=":C2_5_0" index="0" speed="13.89" length="14.40" shape="207.20,201.60 192.80,201.60"/>
    </edge>
    <edge id=":C2_6" function="internal">
        <lane id=":C2_6_0" index="0" speed="8.00" length="14.19" shape="207.20,201.60 203.35,201.05 200.60,199.40 198.95,196.65 198.40,192.80"/>
    </edge>
    <edge id=":C2_7" function="internal">
        <lane id=":C2_7_0" index="0" speed="3.65" length="4.67" shape="207.20,201.60 206.00,200.80 205.60,200.00 206.00,199.20 207.20,198.40"/>
    </edge>
    <edge id=":C2_8" function="internal">
        <lane id=":C2_8_0" index="0" speed="6.51" length="9.03" shape="201.60,192.80 201.95,195.25 203.00,197.00 204.75,198.05 207.20,198.40"/>
    </edge>
    <edge id=":C2_9" function="internal">
        <lane id=":C2_9_0" index="0" speed="13.89" length="14.40" shape="201.60,192.80 201.60,207.20"/>
    </edge>
    <edge id=":C2_10" function="internal">
        <lane id=":C2_10_0" index="0" speed="8.00" length="4.07" shape="201.60,192.80 201.05,196.65 200.96,196.80"/>
    </edge>
    <edge id=":C2_11" function="internal">
        <lane id=":C2_11_0" index="0" speed="3.65" length="1.44" shape="201.60,192.80 200.80,194.00"/>
    </edge>
    <edge id=":C2_18" function="internal">
        <lane id=":C2_18_0" index="0" speed="8.00" length="10.13" shape="200.96,196.80 199.40,199.40 196.65,201.05 192.80,201.60"/>
    </edge>
    <edge id=":C2_19" function="internal">
        <lane id=":C2_19_0" index="0" speed="3.65" length="3.23" shape="200.80,194.00 200.00,194.40 199.20,194.00 198.40,192.80"/>
    </edge>
    <edge id=":C2_12" function="internal">
        <lane id=":C2_12_0" index="0" speed="6.51" length="9.03" shape="192.80,198.40 195.25,198.05 197.00,197.00 198.05,195.25 198.40,192.80"/>
    </edge>
    <edge id=":C2_13" function="internal">
        <lane id=":C2_13_0" index="0" speed="13.89" length="14.40" shape="192.80,198.40 207.20,198.40"/>
    </edge>
    <edge id=":C2_14" function="internal">
        <lane id=":C2_14_0" index="0" speed="8.00" length="14.19" shape="192.80,198.40 196.65,198.95 199.40,200.60 201.05,203.35 201.60,207.20"/>
    </edge>
    <edge id=":C2_15" function="internal">
        <lane id=":C2_15_0" index="0" speed="3.65" length="4.67" shape="192.80,198.40 194.00,199.20 194.40,200.00 194.00,200.80 192.80,201.60"/>
    </edge>
    <edge id=":C3_0" function="internal">
        <lane id=":C3_0_0" index="0" speed="3.65" length="4.67" shape="201.60,300.00 200.80,301.20 200.00,301.60 199.20,301.20 198.40,300.00"/>
    </edge>
    <edge id=":D2_0" function="internal">
        <lane id=":D2_0_0" index="0" speed="3.65" length="4.67" shape="300.00,198.40 301.20,199.20 301.60,200.00 301.20,200.80 300.00,201.60"/>
    </edge>

    <edge id="B2C2" from="B2" to="C2" priority="-1">
        <lane id="B2C2_0" index="0" speed="13.89" length="92.80" shape="100.00,198.40 192.80,198.40"/>
    </edge>
    <edge id="C1C2" from="C1" to="C2" priority="-1">
        <lane id="C1C2_0" index="0" speed="13.89" length="92.80" shape="201.60,100.00 201.60,192.80"/>
    </edge>
    <edge id="C2B2" from="C2" to="B2" priority="-1">
        <lane id="C2B2_0" index="0" speed="13.89" length="92.80" shape="192.80,201.60 100.00,201.60"/>
    </edge>
    <edge id="C2C1" from="C2" to="C1" priority="-1">
        <lane id="C2C1_0" index="0" speed="13.89" length="92.80" shape="198.40,192.80 198.40,100.00"/>
    </edge>
    <edge id="C2C3" from="C2" to="C3" priority="-1">
        <lane id="C2C3_0" index="0" speed="13.89" length="92.80" shape="201.60,207.20 201.60,300.00"/>
    </edge>
    <edge id="C2D2" from="C2" to="D2" priority="-1">
        <lane id="C2D2_0" index="0" speed="13.89" length="92.80" shape="207.20,198.40 300.00,198.40"/>
    </edge>
    <edge id="C3C2" from="C3" to="C2" priority="-1">
        <lane id="C3C2_0" index="0" speed="13.89" length="92.80" shape="198.40,300.00 198.40,207.20"/>
    </edge>
    <edge id="D2C2" from="D2" to="C2" priority="-1">
        <lane id="D2C2_0" index="0" speed="13.89" length="92.80" shape="300.00,201.60 207.20,201.60"/>
    </edge>

    <junction id="B2" type="priority" x="100.00" y="200.00" incLanes="C2B2_0" intLanes=":B2_0_0" shape="100.00,200.00 100.00,203.20 100.00,200.00">
        <request index="0" response="0" foes="0" cont="0"/>
    </junction>
    <junction id="C1" type="priority" x="200.00" y="100.00" incLanes="C2C1_0" intLanes=":C1_0_0" shape="200.00,100.00 196.80,100.00 200.00,100.00">
        <request index="0" response="0" foes="0" cont="0"/>
    </junction>
    <junction id="C2" type="priority" x="200.00" y="200.00" incLanes="C3C2_0 D2C2_0 C1C2_0 B2C2_0" intLanes=":C2_0_0 :C2_1_0 :C2_16_0 :C2_17_0 :C2_4_0 :C2_5_0 :C2_6_0 :C2_7_0 :C2_8_0 :C2_9_0 :C2_18_0 :C2_19_0 :C2_12_0 :C2_13_0 :C2_14_0 :C2_15_0" shape="196.80,207.20 203.20,207.20 203.64,204.98 204.20,204.20 204.98,203.64 205.98,203.31 207.20,203.20 207.20,196.80 204.98,196.36 204.20,195.80 203.64,195.02 203.31,194.02 203.20,192.80 196.80,192.80 196.36,195.02 195.80,195.80 195.02,196.36 194.02,196.69 192.80,196.80 192.80,203.20 195.02,203.64 195.80,204.20 196.36,204.98 196.69,205.98">
        <request index="0"  response="0000000000000000" foes="1000010000100000" cont="0"/>
        <request index="1"  response="0000000000000000" foes="0111110001100000" cont="0"/>
        <request index="2"  response="0000001100000000" foes="0110011111100000" cont="1"/>
        <request index="3"  response="0100001000010000" foes="0100001000010000" cont="1"/>
        <request index="4"  response="0000001000000000" foes="0100001000001000" cont="0"/>
        <request index="5"  response="0000011000000111" foes="1100011000000111" cont="0"/>
        <request index="6"  response="0011011000000110" foes="0111111000000110" cont="0"/>
        <request index="7"  response="0010000100000100" foes="0010000100000100" cont="0"/>
        <request index="8"  response="0000000000000000" foes="0010000010000100" cont="0"/>
        <request index="9"  response="0000000000000000" foes="0110000001111100" cont="0"/>
        <request index="10" response="0000000000000111" foes="1110000001100111" cont="1"/>
        <request index="11" response="0001000001000010" foes="0001000001000010" cont="1"/>
        <request index="12" response="0000000000000010" foes="0000100001000010" cont="0"/>
        <request index="13" response="0000011100000110" foes="0000011111000110" cont="0"/>
        <request index="14" response="0000011001110110" foes="0000011001111110" cont="0"/>
        <request index="15" response="0000010000100001" foes="0000010000100001" cont="0"/>
    </junction>
    <junction id="C3" type="priority" x="200.00" y="300.00" incLanes="C2C3_0" intLanes=":C3_0_0" shape="200.00,300.00 203.20,300.00 200.00,300.00">
        <request index="0" response="0" foes="0" cont="0"/>
    </junction>
    <junction id="D2" type="priority" x="300.00" y="200.00" incLanes="C2D2_0" intLanes=":D2_0_0" shape="300.00,200.00 300.00,196.80 300.00,200.00">
        <request index="0" response="0" foes="0" cont="0"/>
    </junction>

    <junction id=":C2_16_0" type="internal" x="199.04" y="203.20" incLanes=":C2_2_0 C1C2_0" intLanes=":C2_5_0 :C2_6_0 :C2_7_0 :C2_8_0 :C2_9_0 :C2_13_0 :C2_14_0"/>
    <junction id=":C2_17_0" type="internal" x="199.20" y="206.00" incLanes=":C2_3_0 B2C2_0 C1C2_0 D2C2_0" intLanes=":C2_4_0 :C2_9_0 :C2_14_0"/>
    <junction id=":C2_18_0" type="internal" x="200.96" y="196.80" incLanes=":C2_10_0 C3C2_0" intLanes=":C2_0_0 :C2_1_0 :C2_5_0 :C2_6_0 :C2_13_0 :C2_14_0 :C2_15_0"/>
    <junction id=":C2_19_0" type="internal" x="200.80" y="194.00" incLanes=":C2_11_0 B2C2_0 C3C2_0 D2C2_0" intLanes=":C2_1_0 :C2_6_0 :C2_12_0"/>

    <connection from="B2C2" to="C2C1" fromLane="0" toLane="0" via=":C2_12_0" dir="r" state="m"/>
    <connection from="B2C2" to="C2D2" fromLane="0" toLane="0" via=":C2_13_0" dir="s" state="m"/>
    <connection from="B2C2" to="C2C3" fromLane="0" toLane="0" via=":C2_14_0" dir="l" state="m"/>
    <connection from="B2C2" to="C2B2" fromLane="0" toLane="0" via=":C2_15_0" dir="t" state="m"/>
    <connection from="C1C2" to="C2D2" fromLane="0" toLane="0" via=":C2_8_0" dir="r" state="M"/>
    <connection from="C1C2" to="C2C3" fromLane="0" toLane="0" via=":C2_9_0" dir="s" state="M"/>
    <connection from="C1C2" to="C2B2" fromLane="0" toLane="0" via=":C2_10_0" dir="l" state="m"/>
    <connection from="C1C2" to="C2C1" fromLane="0" toLane="0" via=":C2_11_0" dir="t" state="m"/>
    <connection from="C2B2" to="B2C2" fromLane="0" toLane="0" via=":B2_0_0" dir="t" state="M"/>
    <connection from="C2C1" to="C1C2" fromLane="0" toLane="0" via=":C1_0_0" dir="t" state="M"/>
    <connection from="C2C3" to="C3C2" fromLane="0" toLane="0" via=":C3_0_0" dir="t" state="M"/>
    <connection from="C2D2" to="D2C2" fromLane="0" toLane="0" via=":D2_0_0" dir="t" state="M"/>
    <connection from="C3C2" to="C2B2" fromLane="0" toLane="0" via=":C2_0_0" dir="r" state="M"/>
    <connection from="C3C2" to="C2C1" fromLane="0" toLane="0" via=":C2_1_0" dir="s" state="M"/>
    <connection from="C3C2" to="C2D2" fromLane="0" toLane="0" via=":C2_2_0" dir="l" state="m"/>
    <connection from="C3C2" to="C2C3" fromLane="0" toLane="0" via=":C2_3_0" dir="t" state="m"/>
    <connection from="D2C2" to="C2C3" fromLane="0" toLane="0" via=":C2_4_0" dir="r" state="m"/>
    <connection from="D2C2" to="C2B2" fromLane="0" toLane="0" via=":C2_5_0" dir="s" state="m"/>
    <connection from="D2C2" to="C2C1" fromLane="0" toLane="0" via=":C2_6_0" dir="l" state="m"/>
    <connection from="D2C2" to="C2D2" fromLane="0" toLane="0" via=":C2_7_0" dir="t" state="m"/>

    <connection from=":B2_0" to="B2C2" fromLane="0" toLane="0" dir="t" state="M"/>
    <connection from=":C1_0" to="C1C2" fromLane="0" toLane="0" dir="t" state="M"/>
    <connection from=":C2_0" to="C2B2" fromLane="0" toLane="0" dir="r" state="M"/>
    <connection from=":C2_1" to="C2C1" fromLane="0" toLane="0" dir="s" state="M"/>
    <connection from=":C2_2" to="C2D2" fromLane="0" toLane="0" via=":C2_16_0" dir="l" state="m"/>
    <connection from=":C2_16" to="C2D2" fromLane="0" toLane="0" dir="l" state="M"/>
    <connection from=":C2_3" to="C2C3" fromLane="0" toLane="0" via=":C2_17_0" dir="t" state="m"/>
    <connection from=":C2_17" to="C2C3" fromLane="0" toLane="0" dir="t" state="M"/>
    <connection from=":C2_4" to="C2C3" fromLane="0" toLane="0" dir="r" state="M"/>
    <connection from=":C2_5" to="C2B2" fromLane="0" toLane="0" dir="s" state="M"/>
    <connection from=":C2_6" to="C2C1" fromLane="0" toLane="0" dir="l" state="M"/>
    <connection from=":C2_7" to="C2D2" fromLane="0" toLane="0" dir="t" state="M"/>
    <connection from=":C2_8" to="C2D2" fromLane="0" toLane="0" dir="r" state="M"/>
    <connection from=":C2_9" to="C2C3" fromLane="0" toLane="0" dir="s" state="M"/>
    <connection from=":C2_10" to="C2B2" fromLane="0" toLane="0" via=":C2_18_0" dir="l" state="m"/>
    <connection from=":C2_18" to="C2B2" fromLane="0" toLane="0" dir="l" state="M"/>
    <connection from=":C2_11" to="C2C1" fromLane="0" toLane="0" via=":C2_19_0" dir="t" state="m"/>
    <connection from=":C2_19" to="C2C1" fromLane="0" toLane="0" dir="t" state="M"/>
    <connection from=":C2_12" to="C2C1" fromLane="0" toLane="0" dir="r" state="M"/>
    <connection from=":C2_13" to="C2D2" fromLane="0" toLane="0" dir="s" state="M"/>
    <connection from=":C2_14" to="C2C3" fromLane="0" toLane="0" dir="l" state="M"/>
    <connection from=":C2_15" to="C2B2" fromLane="0" toLane="0" dir="t" state="M"/>
    <connection from=":C3_0" to="C3C2" fromLane="0" toLane="0" dir="t" state="M"/>
    <connection from=":D2_0" to="D2C2" fromLane="0" toLane="0" dir="t" state="M"/>

</net>
